LTspice 24.0.9 for Windows
Circuit: * C:\Users\adity\Documents\fateh\BSPD\BSPD\comp_sim.asc
Start Time: Sat Apr 27 15:33:19 2024
solver = Normal
Maximum thread count: 16
tnom = 27
temp = 27
method = modified trap
Limiting rise time of source v2 to 0.2
Limiting fall time of source v2 to 0.2
u1:amp1:da: Emission coefficient, N=0.0001, too small, limited to 0.1
u3:amp1:da: Emission coefficient, N=0.0001, too small, limited to 0.1
Direct Newton iteration failed to find .op point.  (Use ".option noopiter" to skip.)
Starting Gmin stepping
Gmin = 10
Gmin = 1.07374
vernier = 0.5
vernier = 0.25
vernier = 0.333333
Gmin = 0.675664
vernier = 0.166667
vernier = 0.0833333
vernier = 0.0416667
vernier = 0.0208333
vernier = 0.0104167
vernier = 0.00520833
vernier = 0.00260417
vernier = 0.00130208
vernier = 0.000651042
vernier = 0.000488281
Gmin = 0.73197
Gmin = 0
Gmin stepping succeeded in finding the operating point.

Total elapsed time: 0.295 seconds.

