LTspice 24.0.9 for Windows
Circuit: * C:\Users\adity\Documents\fateh\BSPD\BSPD\Draft1.asc
Start Time: Fri Apr 26 18:52:08 2024
solver = Normal
Maximum thread count: 16
tnom = 27
temp = 27
method = modified trap
Direct Newton iteration for .op point succeeded.
Total elapsed time: 0.159 seconds.

